<?xml version="1.0" encoding="UTF-8"?>

<!-- generated on 02/04/21 12:40:39 by Eclipse SUMO duarouter Version 1.8.0
<configuration xmlns:xsi="http://www.w3.org/2001/XMLSchema-instance" xsi:noNamespaceSchemaLocation="http://sumo.dlr.de/xsd/duarouterConfiguration.xsd">

    <input>
        <net-file value="dublin.net.xml"/>
        <route-files value="trips.trips.xml"/>
    </input>

    <output>
        <output-file value="dublin.rou.xml"/>
        <alternatives-output value="dublin.rou.alt.xml"/>
    </output>

    <time>
        <begin value="0"/>
        <end value="50"/>
    </time>

    <report>
        <no-warnings value="true"/>
        <ignore-errors value="true"/>
        <no-step-log value="true"/>
    </report>

</configuration>
-->

<routes xmlns:xsi="http://www.w3.org/2001/XMLSchema-instance" xsi:noNamespaceSchemaLocation="http://sumo.dlr.de/xsd/routes_file.xsd">
    <vehicle id="0" depart="0.00">
        <route edges="38574546#1 38574546#2 -282317508 -275506897 -4925957#2 -23582497#1 -23582497#0 -129217476#3 -129217476#2"/>
    </vehicle>
    <vehicle id="1" depart="1.00">
        <route edges="-78366805#1 78366805#1 23582497#0 23582497#1 -4829652#1"/>
    </vehicle>
    <vehicle id="2" depart="2.00">
        <route edges="4825239#0 4825239#1 -37721078#7 -4934683 151364#0 151364#1 46160696#0 46160696#1 46160696#2 37690117 153340545#0 153340545#1 153340545#2 -4385407#1 -4385407#0 4385407#0"/>
    </vehicle>
    <vehicle id="3" depart="3.00">
        <route edges="55333288#2 55333288#3 55333288#4 55333288#5 55333288#6 486412304 750225801 4934681#0 4934681#1 750225802 3791207#0 3791207#1 3791207#2 372284311 362967237#0 362967237#1 362967237#2 362967237#3 362967237#4 362967237#5 362967237#6 495085720 3791291 372477029 37721078#0 -37721078#0 -372477029"/>
    </vehicle>
    <vehicle id="4" depart="4.00">
        <route edges="227827839#1 49185440#5 49185440#6 49185440#7 376662370#0 376662370#1 4825341#0 4825341#1 4825341#2 4825341#3 4825341#4 3791207#0 3791207#1 3791207#2 372284311 362967237#0 362967237#1 362967237#2 362967237#3 362967237#4 362967237#5 362967237#6 495085720 -38574621#2 -38574621#1 -38574621#0 -282317511 -74535386 -4825317#6 -4825317#5 -4825317#4 -4825317#3 -13878462#3 -13878462#2 -13878462#1"/>
    </vehicle>
    <vehicle id="5" depart="5.00">
        <route edges="-4825332 4825332 4385390#0 4385390#1 4385390#2 4385390#3 -372477029 -3791291 4934682#0 4934682#1 4934682#2 4934682#3 375758263#0 375758263#1 4934680 372838324#0"/>
    </vehicle>
    <vehicle id="6" depart="6.00">
        <route edges="-129217478#2 -129217478#1 -129217478#0 -20709041#2 -20709041#1 -20709041#0 37691371 327144419 327144420 -151364#1 -151364#0 4934683 -4825323#1"/>
    </vehicle>
    <vehicle id="7" depart="7.00">
        <route edges="40047168#0 -40047168#0 4934681#1 750225802 49974586#0 49974586#1 49974586#2 49974586#3 4934680 372838324#0 372838324#1 372838324#2 372838324#3 372838324#4 362939724#0 362939724#1 362939724#2 362939724#3 362939724#4 3788281#0 3788281#1 70595235#0 70595235#1 362939725 70595240 125872496 271165125#0 271165125#1 43981321#0 43981321#1 730418127 578973719#0 578973719#1 4401569 405573992#0 405573992#1 23920340 585256046#0 585256046#1 585256046#2 585256047#0 585256047#1 3787955#0 3787955#1 3787955#2 3787955#3 37955513#0 37955513#1 37955513#2 37722122#0 37722122#1"/>
    </vehicle>
    <vehicle id="8" depart="8.00">
        <route edges="-4825332 4825332 4385390#0 4385390#1 4385390#2 4385390#3 -372477029 -3791291 4934682#0 4934682#1 4934682#2 4934682#3 129217480#0 129217480#1 129217480#2 44707923 44707920#0 44707920#1 -25325810#5 -25325810#4 -25325810#3 -25325810#2 -25325810#1 -25325810#0 -231340188#1 -231340188#0 231250681#0 231250681#1 532096352#0 532096352#1 532096352#2 3791034#0 3791034#1"/>
    </vehicle>
    <vehicle id="11" depart="11.00">
        <route edges="129217467#0 -129217467#0 -37721078#1 -37721078#0 -275506898#1 275506898#1 -4385390#3 -4385390#2 -4385390#1 -4385390#0"/>
    </vehicle>
    <vehicle id="12" depart="12.00">
        <route edges="769235527 70410634#0 70410634#1 70410634#2 3787451 4919195 317219089#0 317219089#1 4919196 730048112 3787951#0 3787951#1 3787951#2 3787951#3 3787951#4 70408222 83805216#0 83805216#1 83805216#2 58403837 863391654 58403835 872292597 872292596#0 872292596#1 872292596#2 872292596#3 877713357#0 877713357#1 877713357#2 877713357#3 7664730#0 7664730#1 7664730#2 7664730#3 7664730#4 7664730#5 135513954#0 135513954#1 135513954#2 135513954#3 135513954#4 135513954#5"/>
    </vehicle>
    <vehicle id="13" depart="13.00">
        <route edges="-375758262#2 375758262#2 375758262#3 375758262#4 372284307#0 372284307#1 372284307#2 4925957#0 4925957#1 4925957#2 275506897 282317508 275506898#0 275506898#1 37721078#0 37721078#1 -37721078#1"/>
    </vehicle>
    <vehicle id="17" depart="17.00">
        <route edges="13998368#2 49974586#2 49974586#3 4934680 372838324#0 372838324#1 372838324#2 372838324#3 372838324#4 362939724#0 362939724#1 362939724#2 362939724#3 362939724#4 3788281#0 3788281#1 70595235#0 70595235#1 362939725 70595240 3787451 4919195 317219089#0 317219089#1 4919196 730048112 3787951#0 3787951#1 3787951#2"/>
    </vehicle>
    <vehicle id="20" depart="20.00">
        <route edges="4472600 44668398#0 44668398#1 44668398#2 770996625 770996624 282243995#0 282243995#1 872297417#0 872297417#1 -162745564#9 -162745564#8 -162745564#7 -162745564#6 -162745564#5 -162745564#4 -162745564#3 -162745564#2 -162745564#1 -162745564#0 -877713357#3 -877713357#2 -877713357#1 -877713357#0 -872292596#3 -872292596#2 -872292596#1 -872292596#0 -872292597 -58403835 58403838 58403844#0 58403844#1 70406680#0 70406680#1 125872727 769235521 769235526 3787950 769235527 70410634#0 70410634#1 70410634#2 125872496 271165125#0 271165125#1 43981321#0 43981321#1 730418127 578973719#0 578973719#1 4401569 405573992#0 405573992#1 23920340 585256046#0 585256046#1 585256046#2 585256047#0 585256047#1 3787955#0 3787955#1 3787955#2 3787955#3 37955513#0 37955513#1 37955513#2 37722122#0 37722122#1 4396046#0 18928030#0 18928030#1 -18928030#1"/>
    </vehicle>
    <vehicle id="21" depart="21.00">
        <route edges="-4829626#1 -4829626#0 37721078#5 37721078#6 -4934683 151364#0 151364#1 46160696#0 46160696#1 46160696#2 37690117 46160695#0 46160695#1 46160694 455486016 -34855952 -162745564#9 -162745564#8 -162745564#7 -162745564#6 -162745564#5 -162745564#4 -162745564#3 -162745564#2 -162745564#1 -162745564#0 7664730#0 7664730#1 7664730#2 7664730#3 7664730#4 7664730#5 135513954#0 135513954#1 -12341218#14 -12341218#13 -12341218#12 -12341218#11 -12341218#10 12341218#10"/>
    </vehicle>
    <vehicle id="22" depart="22.00">
        <route edges="-282243995#0 -770996624 -770996625 770996625 770996624 282243995#0 282243995#1 872297417#0 872297417#1 34855952 34855953 455486017 45755442#0 45755442#1 -46160696#2 -46160696#1 -46160696#0 -151364#1 -151364#0 4934683 -4934683"/>
    </vehicle>
    <vehicle id="23" depart="23.00">
        <route edges="-37721078#5 -37721078#4 -37721078#3 -37721078#2 -37721078#1 -37721078#0 -372477029 -3791291 4934682#0 4934682#1 4934682#2 4934682#3 375758263#0 375758263#1 4934680 372838324#0 372838324#1 372838324#2 372838324#3 372838324#4 362939724#0 362939724#1 362939724#2 362939724#3 362939724#4 4253728#0 4253728#1 4253728#2 529171742 24973955 74232837#0 74232837#1 575070043#0 575070043#1 4472591#0 4472591#1 4472592#0 4472592#1 4472592#2 488735970 675882488#0 10590795#0 10590795#1 10590795#2 10590795#3 10590795#4"/>
    </vehicle>
    <vehicle id="25" depart="25.00">
        <route edges="13998362#0 13998362#1 55333288#3 55333288#4 55333288#5 55333288#6 486412304 750225801 4934681#0 4934681#1 750225802 3791207#0 4825344#0 4825344#1 4825344#2 4825344#3 4385385#0 4385385#1 4385385#2 4385385#3 4385385#4 -4825332"/>
    </vehicle>
    <vehicle id="26" depart="26.00">
        <route edges="-7664730#3 -7664730#2 -7664730#1 -7664730#0 -877713357#3 -877713357#2 -877713357#1 -877713357#0 -872292596#3 -872292596#2 -872292596#1 -872292596#0 -872292597 -58403835 58403838 58403844#0 58403844#1 70406680#0 70406680#1 125872727 769235521 769235526 3787950 769235527 70410634#0 70410634#1 70410634#2 125872496 271165125#0 271165125#1 43981321#0 43981321#1 730418127"/>
    </vehicle>
    <vehicle id="27" depart="27.00">
        <route edges="40047164#0 40047164#1 4934681#1 750225802 3791207#0 3791207#1 3791207#2 372284311 362967237#0 362967237#1 362967237#2 362967237#3 362967237#4 362967237#5 362967237#6 495085720 3791291 372477029 37721078#0 37721078#1 37721078#2 37721078#3 37721078#4 37721078#5 37721078#6 -4825323#1 -4825323#0 362967236#0 362967236#1 362967236#2 362967236#3 61717564 61717563#0 30466178 48964316 -38265426#1 38265426#1"/>
    </vehicle>
    <vehicle id="28" depart="28.00">
        <route edges="-4385385#0 37690161 372284311 362967237#0 362967237#1 362967237#2 362967237#3 362967237#4 362967237#5 362967237#6 495085720 3791291 372477029 37721078#0 37721078#1 37721078#2 37721078#3 37721078#4 37721078#5 37721078#6 37721078#7 -4825239#1 4825239#1"/>
    </vehicle>
    <vehicle id="29" depart="29.00">
        <route edges="-41851356#1 -41851356#0 -129217481 362967238 372838324#0 372838324#1 372838324#2 372838324#3 372838324#4 362939724#0 362939724#1 362939724#2 362939724#3 362939724#4 3788281#0 3788281#1 70595235#0 70595235#1 362939725 70595240 125872496 271165125#0 271165125#1 43981321#0 43981321#1 730418127 578973719#0 578973719#1 4401569 405573992#0 405573992#1 23920340 585256046#0 585256046#1 585256046#2 585256047#0 585256047#1 3787955#0 3787955#1 3787955#2 3787955#3 37955513#0 37955513#1 37955513#2 37722122#0 37722122#1 39994843 14401069#0 14401069#1"/>
    </vehicle>
    <vehicle id="31" depart="31.00">
        <route edges="3787951#2 3787951#3 3787951#4 70408222 83805216#0 83805216#1 83805216#2 58403837 863391654 58403835 -58403835 58403838 58403844#0 58403844#1 70406680#0 70406680#1 125872727 769235522 769235524 769235523 55333288#0 55333288#1 55333288#2 55333288#3 55333288#4 55333288#5 55333288#6 228276373#0 228276373#1 228276373#2 4385407#0 -4385831#2 4385831#2"/>
    </vehicle>
    <vehicle id="32" depart="32.00">
        <route edges="4934683 -37721078#6 -37721078#5 -37721078#4 -37721078#3 -37721078#2 -37721078#1 -37721078#0 -372477029 -3791291 4934682#0 4934682#1 4934682#2 4934682#3 375758263#0 375758263#1 4934680 372838324#0 372838324#1 372838324#2 372838324#3 372838324#4 362939724#0 362939724#1 362939724#2 362939724#3 362939724#4 3788281#0 3788281#1 70595235#0 70595235#1 362939725 49185439#0"/>
    </vehicle>
    <vehicle id="33" depart="33.00">
        <route edges="-4829652#0 -13878462#3"/>
    </vehicle>
    <vehicle id="34" depart="34.00">
        <route edges="12341218#7 -12341218#7 -12341218#6 -12341218#5 -12341218#4 -12341218#3 -12341218#2 -12341218#1 -12341218#0 135513954#7 135513954#8 44668398#0 44668398#1 44668398#2 770996625 770996624 282243995#0 282243995#1 872297417#0 872297417#1 -872297417#1"/>
    </vehicle>
    <vehicle id="37" depart="37.00">
        <route edges="4074531#3 372838323#0 372838323#1 4074533 4925986#0 4925986#1 231340188#0 231340188#1 375758262#0 375758262#1 375758262#2 375758262#3 375758262#4 372284307#0 372284307#1 372284307#2 4925957#0 4925957#1 4925957#2 275506897 282317508 275506898#0 275506898#1 37721078#0 37721078#1 37721078#2 37721078#3 37721078#4 37721078#5 37721078#6 -4934683 151364#0 151364#1 46160696#0 46160696#1 46160696#2 37690117 46160695#0 46160695#1 46160694 455486016 -34855952 -162745564#9 -162745564#8 162745564#8 162745564#9"/>
    </vehicle>
    <vehicle id="38" depart="38.00">
        <route edges="59183292 59183298 59183301 -12341245#2 -12341245#1 -12341245#0 -162745564#9 -162745564#8 -162745564#7 -162745564#6 -162745564#5 -162745564#4 -162745564#3 -162745564#2 -162745564#1 -162745564#0 -877713357#3 -877713357#2 -877713357#1 -877713357#0 -872292596#3 -872292596#2 -872292596#1 -872292596#0 -872292597 -58403835 58403838 58403844#0 58403844#1 70406680#0 70406680#1 125872727 769235521 769235526 3787950 769235527 70410634#0 70410634#1 70410634#2 125872496 271165125#0"/>
    </vehicle>
    <vehicle id="39" depart="39.00">
        <route edges="-7664730#2 -7664730#1 -7664730#0 162745564#0 162745564#1 162745564#2 162745564#3 162745564#4 162745564#5 162745564#6 162745564#7 162745564#8 162745564#9 34855952 34855953 455486017 45755442#0 45755442#1 -46160696#2 -46160696#1 -46160696#0 -151364#1 -151364#0 4934683 37721078#7 37721078#8 37721078#9 37721078#10 -74073875#2 -74073875#1 -74073875#0"/>
    </vehicle>
    <vehicle id="41" depart="41.00">
        <route edges="3790875#3 3790875#4 26545993#0 26545993#1 26545993#2 26545993#3 4074531#0 4074531#1 4074531#2 4074531#3 231340191#0 231340191#1 -41851356#1 -41851356#0 -129217481 362967238 372838324#0 372838324#1 372838324#2 372838324#3 372838324#4 362939724#0 362939724#1 362939724#2 362939724#3 362939724#4 3788281#0 3788281#1 70595235#0 70595235#1 362939725 70595240 125872496 271165125#0 271165125#1 43981321#0 43981321#1 730418127 578973719#0 578973719#1 4401569 405573992#0 405573992#1 4401523 372838330#0 372838330#1 800772121 13907389 3791747#0 3791747#1 556390402#0 556390402#1"/>
    </vehicle>
    <vehicle id="42" depart="42.00">
        <route edges="162745564#6 162745564#7 162745564#8 162745564#9 34855952 34855953 455486017 45755442#0 45755442#1 -46160696#2 -46160696#1 -46160696#0 -151364#1 -151364#0 4934683 -37721078#6 -37721078#5 -37721078#4 -37721078#3 -4829628"/>
    </vehicle>
    <vehicle id="43" depart="43.00">
        <route edges="9186547#6 9186547#7 9186547#8 9186547#9 9186547#10 9186547#11 9186547#12 9186547#13 9186547#14 9186547#15 4825310#1 4825310#2 4825310#3 4925957#0 4925957#1 4925957#2 275506897 282317508 275506898#0 275506898#1 -372477029 -3791291 4934682#0 4934682#1 4934682#2 4934682#3 375758263#0 375758263#1 4934680 372838324#0 372838324#1 372838324#2 372838324#3"/>
    </vehicle>
    <vehicle id="44" depart="44.00">
        <route edges="-37264303#1 -37264303#0 -14151839#3 -14151839#2 -14151839#1 -14151839#0 375772038#1 375772038#2 7849019#0 7849019#1 7849019#2 7849019#3 7849019#4 523892327#0 523892327#1 532435056#0 532435056#1 532435057#0 532435057#1 26545993#0 26545993#1 26545993#2 26545993#3 4074531#0 4074531#1 4074531#2 4074531#3 231340191#0 231340191#1 -41851356#1 -41851356#0 -129217481 362967238 372838324#0 372838324#1 372838324#2 372838324#3 372838324#4 362939724#0 362939724#1 362939724#2 362939724#3 362939724#4 3788281#0 3788281#1 70595235#0 70595235#1 362939725 70595240 125872496 271165125#0 271165125#1 43981321#0 43981321#1 730418127 578973719#0 578973719#1 4401569 405573992#0 405573992#1 23920340 585256046#0 585256046#1 585256046#2 585256047#0 585256047#1 3787955#0 3787955#1 3787955#2 3787955#3 37955513#0 37955513#1 37955513#2 37722122#0 37722122#1 4396046#0 18928030#0 18928030#1 -18928030#1"/>
    </vehicle>
    <vehicle id="46" depart="46.00">
        <route edges="49185439#2 13994983#0 13994983#1 13994983#2 70595236 233153575#0 233153575#1 892122116 49974585#0 49974585#1 49185440#0 49185440#1 49185440#2 49185440#3 49185440#4 49185440#5 49185440#6 49185440#7 376662370#0 376662370#1 4825341#0 4825341#1 13998362#0 13998362#1 55333288#3 55333288#4 55333288#5 55333288#6 228276373#0"/>
    </vehicle>
    <vehicle id="47" depart="47.00">
        <route edges="-228276373#1 -228276373#0 486412304 750225801 4934681#0 4934681#1 750225802 3791207#0 4825344#0 4825344#1 4825344#2 4825344#3 4385385#0 4385385#1 4385385#2 4385385#3 4385385#4 4825324#0 4825324#1 4825324#2 151364#0 151364#1 46160696#0 46160696#1 46160696#2 37690117 153340545#0 153340545#1"/>
    </vehicle>
</routes>
